! Automatically generated by the Typhoon HIL TSE to OpenDSS converter.

new "LOADSHAPE.DEFAULT" npts=24 mult=[0.4, 0.3, 0.2, 0.2, 0.2, 0.2, 0.3, 0.5, 0.6, 0.7, 0.7, 0.8, 0.7, 0.7, 0.8, 0.8, 0.8, 1.0, 1.0, 1.0, 1.0, 0.9, 0.7, 0.5] interval=1 useactual=False
